# Discretization file for MODFLOW, generated by Flopy.
        10       101       101         1         4         2
  0  0  0  0  0  0  0  0  0  0
CONSTANT    4.000000E+00                           #delr                          
CONSTANT    4.000000E+00                           #delc                          
CONSTANT    0.000000E+00                           #model_top                     
CONSTANT   -5.000000E+00                           #botm Layer 1                  
CONSTANT   -1.000000E+01                           #botm Layer 2                  
CONSTANT   -1.500000E+01                           #botm Layer 3                  
CONSTANT   -2.000000E+01                           #botm Layer 4                  
CONSTANT   -2.500000E+01                           #botm Layer 5                  
CONSTANT   -3.000000E+01                           #botm Layer 6                  
CONSTANT   -3.500000E+01                           #botm Layer 7                  
CONSTANT   -4.000000E+01                           #botm Layer 8                  
CONSTANT   -4.500000E+01                           #botm Layer 9                  
CONSTANT   -5.000000E+01                           #botm Layer 10                 
      1.000000             1  1.000000  SS 
