# PCG for MODFLOW, generated by Flopy.
        50        30         1
1.0000E-05 1.0000E-05   1.000000         0         0         3  1.000000
